LTspice 24.0.12 for Windows
Circuit: * C:\Users\jerem\Data\Cambridge\Lab Books\Part IIA\SF4\SF4-Data-Logger\hardware\simulation\instrumentation amplifier.asc
Start Time: Mon Jun  3 21:44:44 2024
solver = Normal
Maximum thread count: 16
tnom = 27
temp = 27
method = modified trap
WARNING: Less than two connections to node -5v.  This node is used by v1.
Direct Newton iteration failed to find .op point.  (Use ".option noopiter" to skip.)
Starting Gmin stepping
Gmin = 10
Gmin = 1.07374
Gmin = 0.115292
Gmin = 0.0123794
Gmin = 0.00132923
vernier = 0.5
vernier = 0.25
vernier = 0.125
vernier = 0.0625
Gmin = 0.00100083
vernier = 0.03125
vernier = 0.015625
vernier = 0.0078125
vernier = 0.00390625
vernier = 0.00195312
Gmin = 0.00100083
vernier = 0.000976562
vernier = 0.000488281
Gmin = 0
Gmin stepping failed

Starting source stepping with srcstepmethod=0
Source Step = 3.0303%
Source Step = 33.3333%
Source Step = 63.6364%
Source Step = 93.9394%
vernier = 0.25
Source Step = 90.9268%
Source Step = 90.9564%
Source Step = 90.986%
Source Step = 91.0156%
Source Step = 91.0452%
vernier = 0.00146484
Source Step = 91.0792%
Source Step = 91.1236%
Source Step = 91.168%
Source Step = 91.2124%
Source Step = 91.2568%
vernier = 0.00219727
Source Step = 91.3056%
Source Step = 91.3722%
Source Step = 91.4388%
Source Step = 91.5054%
Source Step = 91.572%
vernier = 0.0032959
Source Step = 91.6419%
Source Step = 91.7418%
Source Step = 91.8416%
Source Step = 91.9415%
Source Step = 92.0414%
Source Step = 92.1413%
vernier = 0.00494385
Source Step = 92.2911%
Source Step = 92.4409%
Source Step = 92.5907%
Source Step = 92.7405%
Source Step = 92.8903%
vernier = 0.00741577
Source Step = 93.1076%
Source Step = 93.3323%
Source Step = 93.557%
Source Step = 93.7817%
Source Step = 94.0064%
vernier = 0.0111237
Source Step = 94.321%
Source Step = 94.6581%
Source Step = 94.9952%
Source Step = 95.3323%
Source Step = 95.6694%
vernier = 0.0166855
Source Step = 96.1244%
Source Step = 96.6301%
Source Step = 97.1357%
Source Step = 97.6413%
Source Step = 98.1469%
vernier = 0.0250282
Source Step = 98.8042%
Source Step = 99.5627%
Source stepping succeeded in finding the operating point.

Total elapsed time: 1.468 seconds.

