LTspice 24.0.12 for Windows
Circuit: * C:\Users\jerem\Data\Cambridge\Lab Books\Part IIA\SF4\SF4-Data-Logger\hardware\simulation\instrumentation amplifier.asc
Start Time: Tue May 28 13:30:31 2024
solver = Normal
Maximum thread count: 16
tnom = 27
temp = 27
method = modified trap
Early termination of direct N-R iteration.
Direct Newton iteration failed to find .op point.  (Use ".option noopiter" to skip.)
Starting Gmin stepping
Gmin = 10
Gmin = 1.07374
Gmin = 0.115292
Gmin = 0.0123794
Gmin = 0.00132923
Gmin = 0.000142725
Gmin = 1.5325e-05
Gmin = 1.6455e-06
vernier = 0.5
vernier = 0.25
vernier = 0.125
Gmin = 9.61139e-07
vernier = 0.0625
vernier = 0.03125
Gmin = 9.10236e-07
vernier = 0.0416667
vernier = 0.0555555
Gmin = 8.09449e-07
vernier = 0.074074
vernier = 0.0987653
Gmin = 6.71752e-07
vernier = 0.131687
Gmin = 5.01686e-07
vernier = 0.175583
vernier = 0.23411
Gmin = 3.08803e-07
vernier = 0.312147
vernier = 0.416196
Gmin = 1.44045e-07
vernier = 0.554928
Gmin = 4.44648e-08
vernier = 0.277464
vernier = 0.138732
vernier = 0.0693659
vernier = 0.034683
vernier = 0.0173415
vernier = 0.00867074
Gmin = 4.71445e-08
vernier = 0.011561
vernier = 0.0154146
Gmin = 4.58584e-08
vernier = 0.0205529
Gmin = 4.38468e-08
vernier = 0.0274038
vernier = 0.0365384
Gmin = 4.07449e-08
vernier = 0.0487178
vernier = 0.0649571
Gmin = 3.62815e-08
vernier = 0.0866095
Gmin = 3.00739e-08
vernier = 0.115479
vernier = 0.153972
Gmin = 2.21571e-08
vernier = 0.205296
vernier = 0.273728
Gmin = 1.37131e-08
vernier = 0.364971
Gmin = 6.36494e-09
vernier = 0.486628
vernier = 0.243314
vernier = 0.121657
vernier = 0.0608285
vernier = 0.0304143
Gmin = 3.68496e-09
vernier = 0.0152071
vernier = 0.00760356
vernier = 0.00380178
vernier = 0.00190089
vernier = 0.000950445
vernier = 0.000475223
Gmin = 0
Gmin stepping failed

Starting source stepping with srcstepmethod=0
Source Step = 3.0303%
vernier = 0.25
Source Step = 7.57576%
Source Step = 15.1515%
Source Step = 17.4331%
Source Step = 17.4627%
Source Step = 17.4923%
Source Step = 17.5219%
Source Step = 17.5515%
Source Step = 17.5811%
vernier = 0.00146484
Source Step = 17.624%
Source Step = 17.6684%
Source Step = 17.7128%
Source Step = 17.7572%
Source Step = 17.8016%
vernier = 0.00219727
Source Step = 17.8637%
Source Step = 17.9303%
Source Step = 17.9969%
Source Step = 18.0634%
Source Step = 18.13%
vernier = 0.0032959
Source Step = 18.2199%
Source Step = 18.3198%
Source Step = 18.4197%
Source Step = 18.5195%
Source Step = 18.6194%
vernier = 0.00494385
Source Step = 18.7493%
Source Step = 18.8991%
Source Step = 19.0489%
Source Step = 19.1987%
Source Step = 19.3485%
vernier = 0.00741577
Source Step = 19.5358%
Source Step = 19.7605%
Source Step = 19.9852%
Source Step = 20.2099%
Source Step = 20.4347%
vernier = 0.0111237
Source Step = 20.7043%
Source Step = 21.0414%
Source Step = 21.3785%
Source Step = 21.7156%
Source Step = 22.0526%
vernier = 0.0166855
Source Step = 22.4403%
Source Step = 22.9459%
Source Step = 23.4515%
Source Step = 23.9572%
Source Step = 24.4628%
vernier = 0.0250282
Source Step = 25.019%
Source Step = 25.7774%
Source Step = 26.5358%
Source Step = 27.2943%
Source Step = 28.0527%
vernier = 0.0375423
Source Step = 28.849%
Source Step = 29.9867%
Source Step = 31.1243%
Source Step = 32.262%
Source Step = 33.3996%
Source Step = 34.5373%
vernier = 0.0563135
Source Step = 36.2437%
Source Step = 37.9502%
Source Step = 39.6567%
Source Step = 41.3631%
Source Step = 43.0696%
vernier = 0.0844703
Source Step = 45.544%
Source Step = 48.1037%
Source Step = 50.6634%
Source Step = 53.2231%
Source Step = 55.7828%
vernier = 0.126705
Source Step = 59.3664%
Source Step = 63.206%
Source Step = 67.0455%
Source Step = 70.8851%
Source Step = 74.7246%
vernier = 0.190058
Source Step = 79.908%
Source Step = 85.6674%
Source Step = 90.4188%
vernier = 0.0118786
Source Step = 90.3558%
Source Step = 90.4458%
Source Step = 90.5358%
Source Step = 90.6258%
Source Step = 90.7158%
Source Step = 90.8058%
Source Step = 90.8958%
Source Step = 90.9858%
Source Step = 91.0758%
Source Step = 91.1657%
Source Step = 91.2557%
Source Step = 91.3457%
Source Step = 91.4357%
Source Step = 91.5257%
Source Step = 91.6157%
Source Step = 91.7057%
Source Step = 91.7957%
Source Step = 91.8857%
Source Step = 91.9757%
Source Step = 92.0656%
Source Step = 92.1556%
Source Step = 92.2456%
Source Step = 92.3356%
Source Step = 92.4256%
Source Step = 92.5156%
Source Step = 92.6056%
Source Step = 92.6956%
Source Step = 92.7856%
Source Step = 92.8756%
Source Step = 92.9655%
Source Step = 93.0555%
Source Step = 93.1455%
Source Step = 93.2355%
Source Step = 93.3255%
Source Step = 93.4155%
Source Step = 93.5055%
Source Step = 93.5955%
Source Step = 93.6855%
Source Step = 93.7754%
Source Step = 93.8654%
Source Step = 93.9554%
Source Step = 94.0454%
Source Step = 94.1354%
Source Step = 94.2254%
Source stepping aborted.
Starting source stepping with srcstepmethod=1
Source Step = 3.0303%
Source Step = 33.3333%
Source Step = 63.6364%
Source Step = 93.9394%
Source Step = 96.9815%
Source Step = 97.0111%
Source Step = 97.0407%
Source Step = 97.0703%
Source Step = 97.0999%
Source Step = 97.1295%
Source Step = 97.1591%
Source Step = 97.1887%
Source Step = 97.2183%
Source Step = 97.2479%
Source Step = 97.2775%
Source Step = 97.3071%
Source Step = 97.3366%
Source Step = 97.3662%
Source Step = 97.3958%
Source Step = 97.4254%
Source Step = 97.455%
Source Step = 97.4846%
Source Step = 97.5142%
Source Step = 97.5438%
Source Step = 97.5734%
Source Step = 97.603%
Source Step = 97.6326%
Source Step = 97.6622%
Source Step = 97.6918%
Source Step = 97.7214%
Source Step = 97.7509%
Source Step = 97.7805%
Source Step = 97.8101%
Source Step = 97.8397%
Source Step = 97.8693%
Source Step = 97.8989%
Source Step = 97.9285%
Source Step = 97.9581%
Source Step = 97.9877%
Source Step = 98.0173%
Source Step = 98.0469%
Source Step = 98.0765%
Source Step = 98.1061%
Source Step = 98.1357%
Source Step = 98.1652%
Source Step = 98.1948%
Source Step = 98.2244%
Source Step = 98.254%
Source Step = 98.2836%
Source Step = 98.3132%
Source Step = 98.3428%
Source Step = 98.3724%
Source Step = 98.402%
Source Step = 98.4316%
Source Step = 98.4612%
Source Step = 98.4908%
Source Step = 98.5204%
Source Step = 98.55%
Source Step = 98.5795%
Source Step = 98.6091%
Source Step = 98.6387%
Source Step = 98.6683%
Source Step = 98.6979%
Source Step = 98.7275%
Source Step = 98.7571%
Source Step = 98.7867%
Source Step = 98.8163%
Source Step = 98.8459%
Source Step = 98.8755%
Source Step = 98.9051%
Source Step = 98.9347%
Source Step = 98.9643%
Source Step = 98.9938%
Source Step = 99.0234%
Source Step = 99.053%
Source Step = 99.0826%
Source Step = 99.1122%
Source Step = 99.1418%
Source Step = 99.1714%
Source Step = 99.201%
Source Step = 99.2306%
Source Step = 99.2602%
Source Step = 99.2898%
Source Step = 99.3194%
Source Step = 99.349%
Source Step = 99.3786%
Source Step = 99.4081%
Source Step = 99.4377%
Source Step = 99.4673%
Source Step = 99.4969%
Source Step = 99.5265%
Source Step = 99.5561%
Source Step = 99.5857%
Source Step = 99.6153%
Source Step = 99.6449%
Source Step = 99.6745%
Source Step = 99.7041%
Source stepping aborted.
Pseudo Transient failed in finding the operating point at 21.8194 ms.
Trouble finding operating point....skipping operating point for Transient analysis.
Changing Tseed to 6.83594e-08
Changing Tseed to 6.83594e-10
Total elapsed time: 17.995 seconds.

